# generated using pymatgen
data_MoSeS
_symmetry_space_group_name_H-M   P-3m1
_cell_length_a   3.25251120
_cell_length_b   3.25251120
_cell_length_c   13.61727037
_cell_angle_alpha   90.00000000
_cell_angle_beta   90.00000000
_cell_angle_gamma   120.00000000
_symmetry_Int_Tables_number   164
_chemical_formula_structural   MoSeS
_chemical_formula_sum   'Mo2 Se2 S2'
_cell_volume   124.75509578
_cell_formula_units_Z   2
loop_
 _symmetry_equiv_pos_site_id
 _symmetry_equiv_pos_as_xyz
  1  'x, y, z'
  2  '-x, -y, -z'
  3  '-y, x-y, z'
  4  'y, -x+y, -z'
  5  '-x+y, -x, z'
  6  'x-y, x, -z'
  7  'y, x, -z'
  8  '-y, -x, z'
  9  'x-y, -y, -z'
  10  '-x+y, y, z'
  11  '-x, -x+y, -z'
  12  'x, x-y, z'
loop_
 _atom_type_symbol
 _atom_type_oxidation_number
  Mo4+  4.0
  Se2-  -2.0
  S2-  -2.0
loop_
 _atom_site_type_symbol
 _atom_site_label
 _atom_site_symmetry_multiplicity
 _atom_site_fract_x
 _atom_site_fract_y
 _atom_site_fract_z
 _atom_site_occupancy
  Mo4+  Mo0  2  0.00000000  0.00000000  0.25914775  1
  Se2-  Se1  2  0.33333333  0.66666667  0.13511245  1
  S2-  S2  2  0.33333333  0.66666667  0.37058780  1
